3
Lattice="10.004261399999999 0.0 0.0 0.0 10.004261399999999 0.0 0.0 0.0 10.004261399999999" Properties=species:S:1:pos:R:3 dft_energy_ryd=-44.03354389 molecule_idx=257 crystal_idx=220 pbc="F F F"
H        4.55736996       5.60720250      -5.25967440
O        4.87018414       4.93337620      -4.63050964
H        5.57244590       4.45942131      -5.10981598
