3
Lattice="10.004261399999999 0.0 0.0 0.0 10.004261399999999 0.0 0.0 0.0 10.004261399999999" Properties=species:S:1:pos:R:3 dft_energy_ryd=-44.03354389 molecule_idx=744 crystal_idx=640 pbc="F F F"
H        4.46966861       5.48300476      -5.34278570
O        4.80164323       4.83194650      -4.69962252
H        5.72868815       4.68504874      -4.95759179
