3
Lattice="10.004261399999999 0.0 0.0 0.0 10.004261399999999 0.0 0.0 0.0 10.004261399999999" Properties=species:S:1:pos:R:3 dft_energy_ryd=-44.03354389 molecule_idx=754 crystal_idx=650 pbc="F F F"
O        4.68145622       4.79835198      -5.12522761
H        4.90761832       5.04794359      -4.21182867
H        5.41092547       5.15370443      -5.66294373
