3
Lattice="10.004261399999999 0.0 0.0 0.0 10.004261399999999 0.0 0.0 0.0 10.004261399999999" Properties=species:S:1:pos:R:3 dft_energy_ryd=-44.03354389 molecule_idx=985 crystal_idx=854 pbc="F F F"
H        4.22627385       5.13456823      -4.87663703
O        5.00827271       4.69912715      -5.25927034
H        5.76545344       5.16630463      -4.86409263
