3
Lattice="10.004261399999999 0.0 0.0 0.0 10.004261399999999 0.0 0.0 0.0 10.004261399999999" Properties=species:S:1:pos:R:3 dft_energy_ryd=-44.03354389 molecule_idx=1151 crystal_idx=992 pbc="F F F"
H        4.54487152       5.55058752      -4.65115814
O        4.77516806       4.67249697      -5.00252673
H        5.67996040       4.77691553      -5.34631514
