3
Lattice="10.004261399999999 0.0 0.0 0.0 10.004261399999999 0.0 0.0 0.0 10.004261399999999" Properties=species:S:1:pos:R:3 dft_energy_ryd=-44.03354389 molecule_idx=1545 crystal_idx=1335 pbc="F F F"
H        4.71759563       4.80589192      -5.71736799
O        4.99881097       5.39724485      -4.99697746
H        5.28359339       4.79686324      -4.28565456
