3
Lattice="10.004261399999999 0.0 0.0 0.0 10.004261399999999 0.0 0.0 0.0 10.004261399999999" Properties=species:S:1:pos:R:3 dft_energy_ryd=-44.03354389 molecule_idx=1844 crystal_idx=1595 pbc="F F F"
H        4.23840305       5.22548105      -4.96571594
O        4.98498215       4.60468109      -5.03621379
H        5.77661480       5.16983787      -4.99807029
