3
Lattice="10.004261399999999 0.0 0.0 0.0 10.004261399999999 0.0 0.0 0.0 10.004261399999999" Properties=species:S:1:pos:R:3 dft_energy_ryd=-44.03354389 molecule_idx=2034 crystal_idx=1754 pbc="F F F"
H        4.26550814       5.09767817      -5.28814526
O        5.02353614       5.25777470      -4.69864925
H        5.71095573       4.64454714      -5.01320550
