3
Lattice="10.004261399999999 0.0 0.0 0.0 10.004261399999999 0.0 0.0 0.0 10.004261399999999" Properties=species:S:1:pos:R:3 dft_energy_ryd=-44.03354389 molecule_idx=2096 crystal_idx=1811 pbc="F F F"
H        4.45700495       5.34406402      -4.53228694
O        4.80789265       4.69528738      -5.16750822
H        5.73510239       4.96064861      -5.30020484
