3
Lattice="10.004261399999999 0.0 0.0 0.0 10.004261399999999 0.0 0.0 0.0 10.004261399999999" Properties=species:S:1:pos:R:3 dft_energy_ryd=-44.03354389 molecule_idx=2229 crystal_idx=1928 pbc="F F F"
H        4.58322354       4.33173293      -4.89185345
O        5.16406232       4.95755999      -5.35929990
H        5.25271414       5.71070709      -4.74884665
