3
Lattice="10.004261399999999 0.0 0.0 0.0 10.004261399999999 0.0 0.0 0.0 10.004261399999999" Properties=species:S:1:pos:R:3 dft_energy_ryd=-44.03354389 molecule_idx=2535 crystal_idx=2198 pbc="F F F"
H        4.30404355       4.70502547      -5.24633649
O        5.08566819       5.28513573      -5.26300684
H        5.61028826       5.00983880      -4.49065668
