3
Lattice="10.004261399999999 0.0 0.0 0.0 10.004261399999999 0.0 0.0 0.0 10.004261399999999" Properties=species:S:1:pos:R:3 dft_energy_ryd=-44.03354389 molecule_idx=2805 crystal_idx=2438 pbc="F F F"
H        4.48427591       4.66403076      -4.49680983
O        5.26197582       4.71239393      -5.08040794
H        5.25374827       5.62357532      -5.42278224
