3
Lattice="10.004261399999999 0.0 0.0 0.0 10.004261399999999 0.0 0.0 0.0 10.004261399999999" Properties=species:S:1:pos:R:3 dft_energy_ryd=-44.03354389 molecule_idx=2875 crystal_idx=2502 pbc="F F F"
H        4.52543267       4.38039891      -5.15141775
H        5.20120555       5.76271581      -5.09879324
O        5.27336178       4.85688530      -4.74978901
