3
Lattice="10.004261399999999 0.0 0.0 0.0 10.004261399999999 0.0 0.0 0.0 10.004261399999999" Properties=species:S:1:pos:R:3 dft_energy_ryd=-44.03354389 molecule_idx=2891 crystal_idx=2514 pbc="F F F"
H        4.40418532       5.48555206      -4.79696494
O        4.99754134       5.00065426      -5.39724998
H        5.59827335       4.51379369      -4.80578509
