3
Lattice="10.004261399999999 0.0 0.0 0.0 10.004261399999999 0.0 0.0 0.0 10.004261399999999" Properties=species:S:1:pos:R:3 dft_energy_ryd=-44.03354389 molecule_idx=2977 crystal_idx=2592 pbc="F F F"
H        4.46462233       4.41233565      -5.00073180
H        5.25409367       5.70939223      -4.74653186
O        5.28128400       4.87827214      -5.25273635
