3
Lattice="10.004261399999999 0.0 0.0 0.0 10.004261399999999 0.0 0.0 0.0 10.004261399999999" Properties=species:S:1:pos:R:3 dft_energy_ryd=-44.03354389 molecule_idx=3126 crystal_idx=2721 pbc="F F F"
H        4.53124546       4.36021040      -5.05401518
O        5.04350351       5.12308252      -5.37519616
H        5.42525103       5.51670708      -4.57078866
