3
Lattice="10.004261399999999 0.0 0.0 0.0 10.004261399999999 0.0 0.0 0.0 10.004261399999999" Properties=species:S:1:pos:R:3 dft_energy_ryd=-44.03354389 molecule_idx=3201 crystal_idx=2788 pbc="F F F"
H        4.54658341       5.47735949      -5.44555639
O        5.06100131       5.20511205      -4.66530326
H        5.39241528       4.31752847      -4.88914037
